AMOSTRA/TUM/Cargas.dss
! ==========================================================
! CARGAS — mes 01
! BT: UCBT_tab agregada por transformador (kW = ENE/730 h)
! MT: UCMT_tab individual no PAC do consumidor
! fator de escala aplicado: 1
! 0 cargas de MT descartadas por PAC ausente da rede.
! ==========================================================
New Load.BT_2820219_1 Bus1=2820219-11120252.1.4 Phases=1 Model=8 zipv=(0.5,0,0.5,1,0,0,0) kv=0.1270 pf=0.92 kW=3.489758 Daily=RES-Tipo1
New Load.BT_2820219_2 Bus1=2820219-11120252.2.4 Phases=1 Model=8 zipv=(0.5,0,0.5,1,0,0,0) kv=0.1270 pf=0.92 kW=3.489758 Daily=RES-Tipo1
New Load.BT_2820219_3 Bus1=2820219-11120252.3.4 Phases=1 Model=8 zipv=(0.5,0,0.5,1,0,0,0) kv=0.1270 pf=0.92 kW=3.489758 Daily=RES-Tipo1
New Load.BT_2818633_1 Bus1=2818633-11113933.1.4 Phases=1 Model=8 zipv=(0.5,0,0.5,1,0,0,0) kv=0.1270 pf=0.92 kW=1.692680 Daily=RES-Tipo1
New Load.BT_2818633_2 Bus1=2818633-11113933.2.4 Phases=1 Model=8 zipv=(0.5,0,0.5,1,0,0,0) kv=0.1270 pf=0.92 kW=1.692680 Daily=RES-Tipo1
New Load.BT_2818633_3 Bus1=2818633-11113933.3.4 Phases=1 Model=8 zipv=(0.5,0,0.5,1,0,0,0) kv=0.1270 pf=0.92 kW=1.692680 Daily=RES-Tipo1
New Load.BT_2816018_1 Bus1=2816018-11120641.1.4 Phases=1 Model=8 zipv=(0.5,0,0.5,1,0,0,0) kv=0.1270 pf=0.92 kW=3.134397 Daily=COM-Tipo9
New Load.BT_2816018_2 Bus1=2816018-11120641.2.4 Phases=1 Model=8 zipv=(0.5,0,0.5,1,0,0,0) kv=0.1270 pf=0.92 kW=3.134397 Daily=COM-Tipo9
New Load.BT_2816018_3 Bus1=2816018-11120641.3.4 Phases=1 Model=8 zipv=(0.5,0,0.5,1,0,0,0) kv=0.1270 pf=0.92 kW=3.134397 Daily=COM-Tipo9
New Load.BT_2819675_1 Bus1=2819675-11113613.1.4 Phases=1 Model=8 zipv=(0.5,0,0.5,1,0,0,0) kv=0.1100 pf=0.92 kW=0.268664 Daily=RES-Tipo9
New Load.BT_2819675_2 Bus1=2819675-11113613.2.4 Phases=1 Model=8 zipv=(0.5,0,0.5,1,0,0,0) kv=0.1100 pf=0.92 kW=0.268664 Daily=RES-Tipo9
New Load.BT_2818104_1 Bus1=2818104-11113478v.1.4 Phases=1 Model=8 zipv=(0.5,0,0.5,1,0,0,0) kv=0.1100 pf=0.92 kW=0.081178 Daily=RES-Tipo9
New Load.BT_2818104_2 Bus1=2818104-11113478v.2.4 Phases=1 Model=8 zipv=(0.5,0,0.5,1,0,0,0) kv=0.1100 pf=0.92 kW=0.081178 Daily=RES-Tipo9
New Load.BT_2934295_1 Bus1=2934295-12760667.1.4 Phases=1 Model=8 zipv=(0.5,0,0.5,1,0,0,0) kv=0.1100 pf=0.92 kW=0.285890 Daily=RES-Tipo4
New Load.BT_2934295_2 Bus1=2934295-12760667.2.4 Phases=1 Model=8 zipv=(0.5,0,0.5,1,0,0,0) kv=0.1100 pf=0.92 kW=0.285890 Daily=RES-Tipo4
New Load.BT_2816303_1 Bus1=2816303-11122365.1.4 Phases=1 Model=8 zipv=(0.5,0,0.5,1,0,0,0) kv=0.1270 pf=0.92 kW=0.827406 Daily=RUR-Tipo5
New Load.BT_2816303_2 Bus1=2816303-11122365.2.4 Phases=1 Model=8 zipv=(0.5,0,0.5,1,0,0,0) kv=0.1270 pf=0.92 kW=0.827406 Daily=RUR-Tipo5
New Load.BT_2816303_3 Bus1=2816303-11122365.3.4 Phases=1 Model=8 zipv=(0.5,0,0.5,1,0,0,0) kv=0.1270 pf=0.92 kW=0.827406 Daily=RUR-Tipo5
New Load.BT_2818717_1 Bus1=2818717-11113274.1.4 Phases=1 Model=8 zipv=(0.5,0,0.5,1,0,0,0) kv=0.1100 pf=0.92 kW=0.067829 Daily=RUR-Tipo9
New Load.BT_2818717_2 Bus1=2818717-11113274.2.4 Phases=1 Model=8 zipv=(0.5,0,0.5,1,0,0,0) kv=0.1100 pf=0.92 kW=0.067829 Daily=RUR-Tipo9
New Load.BT_2819607_1 Bus1=2819607-11112916.1.4 Phases=1 Model=8 zipv=(0.5,0,0.5,1,0,0,0) kv=0.1100 pf=0.92 kW=0.153514 Daily=RES-Tipo5
New Load.BT_2819607_2 Bus1=2819607-11112916.2.4 Phases=1 Model=8 zipv=(0.5,0,0.5,1,0,0,0) kv=0.1100 pf=0.92 kW=0.153514 Daily=RES-Tipo5
New Load.BT_2818938_1 Bus1=2818938-11119140.1.4 Phases=1 Model=8 zipv=(0.5,0,0.5,1,0,0,0) kv=0.1270 pf=0.92 kW=2.799338 Daily=RUR-Tipo5
New Load.BT_2818938_2 Bus1=2818938-11119140.2.4 Phases=1 Model=8 zipv=(0.5,0,0.5,1,0,0,0) kv=0.1270 pf=0.92 kW=2.799338 Daily=RUR-Tipo5
New Load.BT_2818938_3 Bus1=2818938-11119140.3.4 Phases=1 Model=8 zipv=(0.5,0,0.5,1,0,0,0) kv=0.1270 pf=0.92 kW=2.799338 Daily=RUR-Tipo5
New Load.BT_2819718_1 Bus1=2819718-11113070v.1.4 Phases=1 Model=8 zipv=(0.5,0,0.5,1,0,0,0) kv=0.1100 pf=0.92 kW=0.294432 Daily=RES-Tipo9
New Load.BT_2819718_2 Bus1=2819718-11113070v.2.4 Phases=1 Model=8 zipv=(0.5,0,0.5,1,0,0,0) kv=0.1100 pf=0.92 kW=0.294432 Daily=RES-Tipo9
New Load.BT_2896284_1 Bus1=2896284-11372130.1.4 Phases=1 Model=8 zipv=(0.5,0,0.5,1,0,0,0) kv=0.1100 pf=0.92 kW=0.156781 Daily=RUR-Tipo1
New Load.BT_2896284_2 Bus1=2896284-11372130.2.4 Phases=1 Model=8 zipv=(0.5,0,0.5,1,0,0,0) kv=0.1100 pf=0.92 kW=0.156781 Daily=RUR-Tipo1
New Load.BT_2819126_1 Bus1=2819126-11113671v.1.4 Phases=1 Model=8 zipv=(0.5,0,0.5,1,0,0,0) kv=0.1100 pf=0.92 kW=0.112945 Daily=RES-Tipo9
New Load.BT_2819126_2 Bus1=2819126-11113671v.2.4 Phases=1 Model=8 zipv=(0.5,0,0.5,1,0,0,0) kv=0.1100 pf=0.92 kW=0.112945 Daily=RES-Tipo9
New Load.BT_2817682_1 Bus1=2817682-11107311.1.4 Phases=1 Model=8 zipv=(0.5,0,0.5,1,0,0,0) kv=0.1100 pf=0.92 kW=0.032349 Daily=RES-Tipo9
New Load.BT_2817682_2 Bus1=2817682-11107311.2.4 Phases=1 Model=8 zipv=(0.5,0,0.5,1,0,0,0) kv=0.1100 pf=0.92 kW=0.032349 Daily=RES-Tipo9
New Load.BT_2819593_1 Bus1=2819593-11116861.1.4 Phases=1 Model=8 zipv=(0.5,0,0.5,1,0,0,0) kv=0.1270 pf=0.92 kW=0.239146 Daily=RES-Tipo9
New Load.BT_2819593_2 Bus1=2819593-11116861.2.4 Phases=1 Model=8 zipv=(0.5,0,0.5,1,0,0,0) kv=0.1270 pf=0.92 kW=0.239146 Daily=RES-Tipo9
New Load.BT_2819593_3 Bus1=2819593-11116861.3.4 Phases=1 Model=8 zipv=(0.5,0,0.5,1,0,0,0) kv=0.1270 pf=0.92 kW=0.239146 Daily=RES-Tipo9
New Load.BT_2819462_1 Bus1=2819462-11113857.1.4 Phases=1 Model=8 zipv=(0.5,0,0.5,1,0,0,0) kv=0.1100 pf=0.92 kW=0.008575 Daily=RUR-Tipo1
New Load.BT_2819462_2 Bus1=2819462-11113857.2.4 Phases=1 Model=8 zipv=(0.5,0,0.5,1,0,0,0) kv=0.1100 pf=0.92 kW=0.008575 Daily=RUR-Tipo1
New Load.BT_2820057_1 Bus1=2820057-11120153.1.4 Phases=1 Model=8 zipv=(0.5,0,0.5,1,0,0,0) kv=0.1270 pf=0.92 kW=2.062584 Daily=RES-Tipo1
New Load.BT_2820057_2 Bus1=2820057-11120153.2.4 Phases=1 Model=8 zipv=(0.5,0,0.5,1,0,0,0) kv=0.1270 pf=0.92 kW=2.062584 Daily=RES-Tipo1
New Load.BT_2820057_3 Bus1=2820057-11120153.3.4 Phases=1 Model=8 zipv=(0.5,0,0.5,1,0,0,0) kv=0.1270 pf=0.92 kW=2.062584 Daily=RES-Tipo1
New Load.BT_2816668_1 Bus1=2816668-11102234.1.4 Phases=1 Model=8 zipv=(0.5,0,0.5,1,0,0,0) kv=0.1100 pf=0.92 kW=0.512308 Daily=RES-Tipo1
New Load.BT_2816668_2 Bus1=2816668-11102234.2.4 Phases=1 Model=8 zipv=(0.5,0,0.5,1,0,0,0) kv=0.1100 pf=0.92 kW=0.512308 Daily=RES-Tipo1
New Load.BT_2819962_1 Bus1=2819962-11099008.1.4 Phases=1 Model=8 zipv=(0.5,0,0.5,1,0,0,0) kv=0.1100 pf=0.92 kW=0.586432 Daily=RUR-Tipo2
New Load.BT_2819962_2 Bus1=2819962-11099008.2.4 Phases=1 Model=8 zipv=(0.5,0,0.5,1,0,0,0) kv=0.1100 pf=0.92 kW=0.586432 Daily=RUR-Tipo2
New Load.BT_2816369_1 Bus1=2816369-11121328.1.4 Phases=1 Model=8 zipv=(0.5,0,0.5,1,0,0,0) kv=0.1100 pf=0.92 kW=0.335151 Daily=RUR-Tipo2
New Load.BT_2816369_2 Bus1=2816369-11121328.2.4 Phases=1 Model=8 zipv=(0.5,0,0.5,1,0,0,0) kv=0.1100 pf=0.92 kW=0.335151 Daily=RUR-Tipo2
New Load.BT_2816782_1 Bus1=2816782-11098970.1.4 Phases=1 Model=8 zipv=(0.5,0,0.5,1,0,0,0) kv=0.1270 pf=0.92 kW=0.525877 Daily=RES-Tipo2
New Load.BT_2816782_2 Bus1=2816782-11098970.2.4 Phases=1 Model=8 zipv=(0.5,0,0.5,1,0,0,0) kv=0.1270 pf=0.92 kW=0.525877 Daily=RES-Tipo2
New Load.BT_2816782_3 Bus1=2816782-11098970.3.4 Phases=1 Model=8 zipv=(0.5,0,0.5,1,0,0,0) kv=0.1270 pf=0.92 kW=0.525877 Daily=RES-Tipo2
New Load.BT_2820118_1 Bus1=2820118-11098972.1.4 Phases=1 Model=8 zipv=(0.5,0,0.5,1,0,0,0) kv=0.1270 pf=0.92 kW=1.193046 Daily=RES-Tipo2
New Load.BT_2820118_2 Bus1=2820118-11098972.2.4 Phases=1 Model=8 zipv=(0.5,0,0.5,1,0,0,0) kv=0.1270 pf=0.92 kW=1.193046 Daily=RES-Tipo2
New Load.BT_2820118_3 Bus1=2820118-11098972.3.4 Phases=1 Model=8 zipv=(0.5,0,0.5,1,0,0,0) kv=0.1270 pf=0.92 kW=1.193046 Daily=RES-Tipo2
New Load.BT_2817836_1 Bus1=2817836-11098978v.1.4 Phases=1 Model=8 zipv=(0.5,0,0.5,1,0,0,0) kv=0.1100 pf=0.92 kW=0.236856 Daily=RUR-Tipo2
New Load.BT_2817836_2 Bus1=2817836-11098978v.2.4 Phases=1 Model=8 zipv=(0.5,0,0.5,1,0,0,0) kv=0.1100 pf=0.92 kW=0.236856 Daily=RUR-Tipo2
New Load.BT_2817270_1 Bus1=2817270-11114187.1.4 Phases=1 Model=8 zipv=(0.5,0,0.5,1,0,0,0) kv=0.1270 pf=0.92 kW=0.973484 Daily=RES-Tipo2
New Load.BT_2817270_2 Bus1=2817270-11114187.2.4 Phases=1 Model=8 zipv=(0.5,0,0.5,1,0,0,0) kv=0.1270 pf=0.92 kW=0.973484 Daily=RES-Tipo2
New Load.BT_2817270_3 Bus1=2817270-11114187.3.4 Phases=1 Model=8 zipv=(0.5,0,0.5,1,0,0,0) kv=0.1270 pf=0.92 kW=0.973484 Daily=RES-Tipo2
New Load.BT_2820116_1 Bus1=2820116-11114787.1.4 Phases=1 Model=8 zipv=(0.5,0,0.5,1,0,0,0) kv=0.1270 pf=0.92 kW=0.455498 Daily=RES-Tipo2
New Load.BT_2820116_2 Bus1=2820116-11114787.2.4 Phases=1 Model=8 zipv=(0.5,0,0.5,1,0,0,0) kv=0.1270 pf=0.92 kW=0.455498 Daily=RES-Tipo2
New Load.BT_2820116_3 Bus1=2820116-11114787.3.4 Phases=1 Model=8 zipv=(0.5,0,0.5,1,0,0,0) kv=0.1270 pf=0.92 kW=0.455498 Daily=RES-Tipo2
New Load.BT_2816780_1 Bus1=2816780-11120493.1.4 Phases=1 Model=8 zipv=(0.5,0,0.5,1,0,0,0) kv=0.1270 pf=0.92 kW=0.298584 Daily=RES-Tipo2
New Load.BT_2816780_2 Bus1=2816780-11120493.2.4 Phases=1 Model=8 zipv=(0.5,0,0.5,1,0,0,0) kv=0.1270 pf=0.92 kW=0.298584 Daily=RES-Tipo2
New Load.BT_2816780_3 Bus1=2816780-11120493.3.4 Phases=1 Model=8 zipv=(0.5,0,0.5,1,0,0,0) kv=0.1270 pf=0.92 kW=0.298584 Daily=RES-Tipo2
New Load.BT_2819236_1 Bus1=2819236-11108353.1.4 Phases=1 Model=8 zipv=(0.5,0,0.5,1,0,0,0) kv=0.1270 pf=0.92 kW=1.016352 Daily=RUR-Tipo10
New Load.BT_2819236_2 Bus1=2819236-11108353.2.4 Phases=1 Model=8 zipv=(0.5,0,0.5,1,0,0,0) kv=0.1270 pf=0.92 kW=1.016352 Daily=RUR-Tipo10
New Load.BT_2819236_3 Bus1=2819236-11108353.3.4 Phases=1 Model=8 zipv=(0.5,0,0.5,1,0,0,0) kv=0.1270 pf=0.92 kW=1.016352 Daily=RUR-Tipo10
New Load.BT_2816870_1 Bus1=2816870-11112018.1.4 Phases=1 Model=8 zipv=(0.5,0,0.5,1,0,0,0) kv=0.1100 pf=0.92 kW=3.228712 Daily=RUR-Tipo2
New Load.BT_2816870_2 Bus1=2816870-11112018.2.4 Phases=1 Model=8 zipv=(0.5,0,0.5,1,0,0,0) kv=0.1100 pf=0.92 kW=3.228712 Daily=RUR-Tipo2
New Load.BT_2816848_1 Bus1=2816848-11121029.1.4 Phases=1 Model=8 zipv=(0.5,0,0.5,1,0,0,0) kv=0.1270 pf=0.92 kW=0.051091 Daily=RES-Tipo9
New Load.BT_2816848_2 Bus1=2816848-11121029.2.4 Phases=1 Model=8 zipv=(0.5,0,0.5,1,0,0,0) kv=0.1270 pf=0.92 kW=0.051091 Daily=RES-Tipo9
New Load.BT_2816848_3 Bus1=2816848-11121029.3.4 Phases=1 Model=8 zipv=(0.5,0,0.5,1,0,0,0) kv=0.1270 pf=0.92 kW=0.051091 Daily=RES-Tipo9
New Load.BT_2820115_1 Bus1=2820115-11120495.1.4 Phases=1 Model=8 zipv=(0.5,0,0.5,1,0,0,0) kv=0.1270 pf=0.92 kW=1.757717 Daily=RES-Tipo2
New Load.BT_2820115_2 Bus1=2820115-11120495.2.4 Phases=1 Model=8 zipv=(0.5,0,0.5,1,0,0,0) kv=0.1270 pf=0.92 kW=1.757717 Daily=RES-Tipo2
New Load.BT_2820115_3 Bus1=2820115-11120495.3.4 Phases=1 Model=8 zipv=(0.5,0,0.5,1,0,0,0) kv=0.1270 pf=0.92 kW=1.757717 Daily=RES-Tipo2
New Load.BT_2817266_1 Bus1=2817266-11108359.1.4 Phases=1 Model=8 zipv=(0.5,0,0.5,1,0,0,0) kv=0.1270 pf=0.92 kW=0.769553 Daily=RES-Tipo9
New Load.BT_2817266_2 Bus1=2817266-11108359.2.4 Phases=1 Model=8 zipv=(0.5,0,0.5,1,0,0,0) kv=0.1270 pf=0.92 kW=0.769553 Daily=RES-Tipo9
New Load.BT_2817266_3 Bus1=2817266-11108359.3.4 Phases=1 Model=8 zipv=(0.5,0,0.5,1,0,0,0) kv=0.1270 pf=0.92 kW=0.769553 Daily=RES-Tipo9
New Load.BT_2819886_1 Bus1=2819886-11099113v.1.4 Phases=1 Model=8 zipv=(0.5,0,0.5,1,0,0,0) kv=0.1100 pf=0.92 kW=0.023288 Daily=RUR-Tipo2
New Load.BT_2819886_2 Bus1=2819886-11099113v.2.4 Phases=1 Model=8 zipv=(0.5,0,0.5,1,0,0,0) kv=0.1100 pf=0.92 kW=0.023288 Daily=RUR-Tipo2
New Load.BT_2818724_1 Bus1=2818724-11112570.1.4 Phases=1 Model=8 zipv=(0.5,0,0.5,1,0,0,0) kv=0.1100 pf=0.92 kW=0.126404 Daily=RUR-Tipo5
New Load.BT_2818724_2 Bus1=2818724-11112570.2.4 Phases=1 Model=8 zipv=(0.5,0,0.5,1,0,0,0) kv=0.1100 pf=0.92 kW=0.126404 Daily=RUR-Tipo5
New Load.BT_2816028_1 Bus1=2816028-11112669.1.4 Phases=1 Model=8 zipv=(0.5,0,0.5,1,0,0,0) kv=0.1100 pf=0.92 kW=0.265863 Daily=RUR-Tipo5
New Load.BT_2816028_2 Bus1=2816028-11112669.2.4 Phases=1 Model=8 zipv=(0.5,0,0.5,1,0,0,0) kv=0.1100 pf=0.92 kW=0.265863 Daily=RUR-Tipo5
New Load.BT_2818827_1 Bus1=2818827-11112560v.1.4 Phases=1 Model=8 zipv=(0.5,0,0.5,1,0,0,0) kv=0.1100 pf=0.92 kW=0.004178 Daily=RUR-Tipo5
New Load.BT_2818827_2 Bus1=2818827-11112560v.2.4 Phases=1 Model=8 zipv=(0.5,0,0.5,1,0,0,0) kv=0.1100 pf=0.92 kW=0.004178 Daily=RUR-Tipo5
New Load.BT_2817875_1 Bus1=2817875-11099080v.1.4 Phases=1 Model=8 zipv=(0.5,0,0.5,1,0,0,0) kv=0.1100 pf=0.92 kW=0.097459 Daily=RUR-Tipo2
New Load.BT_2817875_2 Bus1=2817875-11099080v.2.4 Phases=1 Model=8 zipv=(0.5,0,0.5,1,0,0,0) kv=0.1100 pf=0.92 kW=0.097459 Daily=RUR-Tipo2
New Load.BT_2816701_1 Bus1=2816701-11112806v.1.4 Phases=1 Model=8 zipv=(0.5,0,0.5,1,0,0,0) kv=0.1100 pf=0.92 kW=0.052897 Daily=RUR-Tipo5
New Load.BT_2816701_2 Bus1=2816701-11112806v.2.4 Phases=1 Model=8 zipv=(0.5,0,0.5,1,0,0,0) kv=0.1100 pf=0.92 kW=0.052897 Daily=RUR-Tipo5
New Load.BT_2819748_1 Bus1=2819748-11098952v.1.4 Phases=1 Model=8 zipv=(0.5,0,0.5,1,0,0,0) kv=0.1100 pf=0.92 kW=0.184466 Daily=RUR-Tipo2
New Load.BT_2819748_2 Bus1=2819748-11098952v.2.4 Phases=1 Model=8 zipv=(0.5,0,0.5,1,0,0,0) kv=0.1100 pf=0.92 kW=0.184466 Daily=RUR-Tipo2
New Load.BT_2817341_1 Bus1=2817341-11112782.1.4 Phases=1 Model=8 zipv=(0.5,0,0.5,1,0,0,0) kv=0.1100 pf=0.92 kW=0.194589 Daily=RUR-Tipo5
New Load.BT_2817341_2 Bus1=2817341-11112782.2.4 Phases=1 Model=8 zipv=(0.5,0,0.5,1,0,0,0) kv=0.1100 pf=0.92 kW=0.194589 Daily=RUR-Tipo5
New Load.BT_2817705_1 Bus1=2817705-11112799v.1.4 Phases=1 Model=8 zipv=(0.5,0,0.5,1,0,0,0) kv=0.1100 pf=0.92 kW=0.077288 Daily=RUR-Tipo5
New Load.BT_2817705_2 Bus1=2817705-11112799v.2.4 Phases=1 Model=8 zipv=(0.5,0,0.5,1,0,0,0) kv=0.1100 pf=0.92 kW=0.077288 Daily=RUR-Tipo5
New Load.BT_2819205_1 Bus1=2819205-11114245v.1.4 Phases=1 Model=8 zipv=(0.5,0,0.5,1,0,0,0) kv=0.1100 pf=0.92 kW=0.009281 Daily=RUR-Tipo2
New Load.BT_2819205_2 Bus1=2819205-11114245v.2.4 Phases=1 Model=8 zipv=(0.5,0,0.5,1,0,0,0) kv=0.1100 pf=0.92 kW=0.009281 Daily=RUR-Tipo2
New Load.BT_2819899_1 Bus1=2819899-11114251.1.4 Phases=1 Model=8 zipv=(0.5,0,0.5,1,0,0,0) kv=0.1100 pf=0.92 kW=0.138315 Daily=RES-Tipo3
New Load.BT_2819899_2 Bus1=2819899-11114251.2.4 Phases=1 Model=8 zipv=(0.5,0,0.5,1,0,0,0) kv=0.1100 pf=0.92 kW=0.138315 Daily=RES-Tipo3
New Load.BT_2818756_1 Bus1=2818756-11114255v.1.4 Phases=1 Model=8 zipv=(0.5,0,0.5,1,0,0,0) kv=0.1100 pf=0.92 kW=0.187055 Daily=RES-Tipo4
New Load.BT_2818756_2 Bus1=2818756-11114255v.2.4 Phases=1 Model=8 zipv=(0.5,0,0.5,1,0,0,0) kv=0.1100 pf=0.92 kW=0.187055 Daily=RES-Tipo4
New Load.BT_2818973_1 Bus1=2818973-11114258v.1.4 Phases=1 Model=8 zipv=(0.5,0,0.5,1,0,0,0) kv=0.1100 pf=0.92 kW=0.183521 Daily=RUR-Tipo2
New Load.BT_2818973_2 Bus1=2818973-11114258v.2.4 Phases=1 Model=8 zipv=(0.5,0,0.5,1,0,0,0) kv=0.1100 pf=0.92 kW=0.183521 Daily=RUR-Tipo2
New Load.BT_2820068_1 Bus1=2820068-11114264v.1.4 Phases=1 Model=8 zipv=(0.5,0,0.5,1,0,0,0) kv=0.1100 pf=0.92 kW=0.098342 Daily=RES-Tipo3
New Load.BT_2820068_2 Bus1=2820068-11114264v.2.4 Phases=1 Model=8 zipv=(0.5,0,0.5,1,0,0,0) kv=0.1100 pf=0.92 kW=0.098342 Daily=RES-Tipo3
New Load.BT_2816356_1 Bus1=2816356-11114273v.1.4 Phases=1 Model=8 zipv=(0.5,0,0.5,1,0,0,0) kv=0.1100 pf=0.92 kW=0.020041 Daily=RUR-Tipo2
New Load.BT_2816356_2 Bus1=2816356-11114273v.2.4 Phases=1 Model=8 zipv=(0.5,0,0.5,1,0,0,0) kv=0.1100 pf=0.92 kW=0.020041 Daily=RUR-Tipo2
New Load.BT_2819476_1 Bus1=2819476-11114274v.1.4 Phases=1 Model=8 zipv=(0.5,0,0.5,1,0,0,0) kv=0.1100 pf=0.92 kW=0.353384 Daily=RUR-Tipo2
New Load.BT_2819476_2 Bus1=2819476-11114274v.2.4 Phases=1 Model=8 zipv=(0.5,0,0.5,1,0,0,0) kv=0.1100 pf=0.92 kW=0.353384 Daily=RUR-Tipo2
New Load.BT_2771501_1 Bus1=2771501-10827265v.1.4 Phases=1 Model=8 zipv=(0.5,0,0.5,1,0,0,0) kv=0.1100 pf=0.92 kW=0.056342 Daily=RUR-Tipo3
New Load.BT_2771501_2 Bus1=2771501-10827265v.2.4 Phases=1 Model=8 zipv=(0.5,0,0.5,1,0,0,0) kv=0.1100 pf=0.92 kW=0.056342 Daily=RUR-Tipo3
New Load.BT_2820062_1 Bus1=2820062-11099936.1.4 Phases=1 Model=8 zipv=(0.5,0,0.5,1,0,0,0) kv=0.1100 pf=0.92 kW=1.327459 Daily=RUR-Tipo5
New Load.BT_2820062_2 Bus1=2820062-11099936.2.4 Phases=1 Model=8 zipv=(0.5,0,0.5,1,0,0,0) kv=0.1100 pf=0.92 kW=1.327459 Daily=RUR-Tipo5
New Load.BT_2817422_1 Bus1=2817422-11100924v.1.4 Phases=1 Model=8 zipv=(0.5,0,0.5,1,0,0,0) kv=0.1100 pf=0.92 kW=0.114781 Daily=RES-Tipo5
New Load.BT_2817422_2 Bus1=2817422-11100924v.2.4 Phases=1 Model=8 zipv=(0.5,0,0.5,1,0,0,0) kv=0.1100 pf=0.92 kW=0.114781 Daily=RES-Tipo5
New Load.BT_2819328_1 Bus1=2819328-11099846v.1.4 Phases=1 Model=8 zipv=(0.5,0,0.5,1,0,0,0) kv=0.1100 pf=0.92 kW=0.020548 Daily=RES-Tipo5
New Load.BT_2819328_2 Bus1=2819328-11099846v.2.4 Phases=1 Model=8 zipv=(0.5,0,0.5,1,0,0,0) kv=0.1100 pf=0.92 kW=0.020548 Daily=RES-Tipo5
New Load.BT_2816155_1 Bus1=2816155-11099898v.1.4 Phases=1 Model=8 zipv=(0.5,0,0.5,1,0,0,0) kv=0.1100 pf=0.92 kW=0.295740 Daily=RES-Tipo5
New Load.BT_2816155_2 Bus1=2816155-11099898v.2.4 Phases=1 Model=8 zipv=(0.5,0,0.5,1,0,0,0) kv=0.1100 pf=0.92 kW=0.295740 Daily=RES-Tipo5
New Load.BT_2818794_1 Bus1=2818794-11100578v.1.4 Phases=1 Model=8 zipv=(0.5,0,0.5,1,0,0,0) kv=0.1100 pf=0.92 kW=0.192336 Daily=RUR-Tipo9
New Load.BT_2818794_2 Bus1=2818794-11100578v.2.4 Phases=1 Model=8 zipv=(0.5,0,0.5,1,0,0,0) kv=0.1100 pf=0.92 kW=0.192336 Daily=RUR-Tipo9
New Load.BT_2819293_1 Bus1=2819293-11100613v.1.4 Phases=1 Model=8 zipv=(0.5,0,0.5,1,0,0,0) kv=0.1100 pf=0.92 kW=0.091822 Daily=RUR-Tipo9
New Load.BT_2819293_2 Bus1=2819293-11100613v.2.4 Phases=1 Model=8 zipv=(0.5,0,0.5,1,0,0,0) kv=0.1100 pf=0.92 kW=0.091822 Daily=RUR-Tipo9
New Load.BT_2817046_1 Bus1=2817046-11100470.1.4 Phases=1 Model=8 zipv=(0.5,0,0.5,1,0,0,0) kv=0.1100 pf=0.92 kW=0.358904 Daily=RUR-Tipo9
New Load.BT_2817046_2 Bus1=2817046-11100470.2.4 Phases=1 Model=8 zipv=(0.5,0,0.5,1,0,0,0) kv=0.1100 pf=0.92 kW=0.358904 Daily=RUR-Tipo9
New Load.BT_2815936_1 Bus1=2815936-11116174.1.4 Phases=1 Model=8 zipv=(0.5,0,0.5,1,0,0,0) kv=0.1100 pf=0.92 kW=0.020548 Daily=RES-Tipo9
New Load.BT_2815936_2 Bus1=2815936-11116174.2.4 Phases=1 Model=8 zipv=(0.5,0,0.5,1,0,0,0) kv=0.1100 pf=0.92 kW=0.020548 Daily=RES-Tipo9
New Load.BT_2815976_1 Bus1=2815976-11114309.1.4 Phases=1 Model=8 zipv=(0.5,0,0.5,1,0,0,0) kv=0.1100 pf=0.92 kW=0.107199 Daily=RES-Tipo9
New Load.BT_2815976_2 Bus1=2815976-11114309.2.4 Phases=1 Model=8 zipv=(0.5,0,0.5,1,0,0,0) kv=0.1100 pf=0.92 kW=0.107199 Daily=RES-Tipo9
New Load.BT_2816752_1 Bus1=2816752-11100653v.1.4 Phases=1 Model=8 zipv=(0.5,0,0.5,1,0,0,0) kv=0.1100 pf=0.92 kW=0.193130 Daily=RES-Tipo4
New Load.BT_2816752_2 Bus1=2816752-11100653v.2.4 Phases=1 Model=8 zipv=(0.5,0,0.5,1,0,0,0) kv=0.1100 pf=0.92 kW=0.193130 Daily=RES-Tipo4
New Load.BT_2817609_1 Bus1=2817609-11106589.1.4 Phases=1 Model=8 zipv=(0.5,0,0.5,1,0,0,0) kv=0.1100 pf=0.92 kW=0.139945 Daily=SP-Tipo1
New Load.BT_2817609_2 Bus1=2817609-11106589.2.4 Phases=1 Model=8 zipv=(0.5,0,0.5,1,0,0,0) kv=0.1100 pf=0.92 kW=0.139945 Daily=SP-Tipo1
New Load.BT_2816820_1 Bus1=2816820-11116014.1.4 Phases=1 Model=8 zipv=(0.5,0,0.5,1,0,0,0) kv=0.1100 pf=0.92 kW=0.580685 Daily=RUR-Tipo5
New Load.BT_2816820_2 Bus1=2816820-11116014.2.4 Phases=1 Model=8 zipv=(0.5,0,0.5,1,0,0,0) kv=0.1100 pf=0.92 kW=0.580685 Daily=RUR-Tipo5
New Load.BT_2816878_1 Bus1=2816878-11119180.1.4 Phases=1 Model=8 zipv=(0.5,0,0.5,1,0,0,0) kv=0.1270 pf=0.92 kW=4.575580 Daily=RES-Tipo5
New Load.BT_2816878_2 Bus1=2816878-11119180.2.4 Phases=1 Model=8 zipv=(0.5,0,0.5,1,0,0,0) kv=0.1270 pf=0.92 kW=4.575580 Daily=RES-Tipo5
New Load.BT_2816878_3 Bus1=2816878-11119180.3.4 Phases=1 Model=8 zipv=(0.5,0,0.5,1,0,0,0) kv=0.1270 pf=0.92 kW=4.575580 Daily=RES-Tipo5
New Load.BT_2818937_1 Bus1=2818937-11100273.1.4 Phases=1 Model=8 zipv=(0.5,0,0.5,1,0,0,0) kv=0.1100 pf=0.92 kW=0.222514 Daily=RUR-Tipo3
New Load.BT_2818937_2 Bus1=2818937-11100273.2.4 Phases=1 Model=8 zipv=(0.5,0,0.5,1,0,0,0) kv=0.1100 pf=0.92 kW=0.222514 Daily=RUR-Tipo3
New Load.BT_2817143_1 Bus1=2817143-11100279v.1.4 Phases=1 Model=8 zipv=(0.5,0,0.5,1,0,0,0) kv=0.1100 pf=0.92 kW=0.048699 Daily=RUR-Tipo5
New Load.BT_2817143_2 Bus1=2817143-11100279v.2.4 Phases=1 Model=8 zipv=(0.5,0,0.5,1,0,0,0) kv=0.1100 pf=0.92 kW=0.048699 Daily=RUR-Tipo5
New Load.BT_2817190_1 Bus1=2817190-11099803v.1.4 Phases=1 Model=8 zipv=(0.5,0,0.5,1,0,0,0) kv=0.1100 pf=0.92 kW=0.426178 Daily=RES-Tipo5
New Load.BT_2817190_2 Bus1=2817190-11099803v.2.4 Phases=1 Model=8 zipv=(0.5,0,0.5,1,0,0,0) kv=0.1100 pf=0.92 kW=0.426178 Daily=RES-Tipo5
New Load.BT_2818791_1 Bus1=2818791-11100952v.1.4 Phases=1 Model=8 zipv=(0.5,0,0.5,1,0,0,0) kv=0.1100 pf=0.92 kW=0.034247 Daily=RUR-Tipo9
New Load.BT_2818791_2 Bus1=2818791-11100952v.2.4 Phases=1 Model=8 zipv=(0.5,0,0.5,1,0,0,0) kv=0.1100 pf=0.92 kW=0.034247 Daily=RUR-Tipo9
New Load.BT_2816123_1 Bus1=2816123-11099884v.1.4 Phases=1 Model=8 zipv=(0.5,0,0.5,1,0,0,0) kv=0.1100 pf=0.92 kW=0.460671 Daily=SP-Tipo1
New Load.BT_2816123_2 Bus1=2816123-11099884v.2.4 Phases=1 Model=8 zipv=(0.5,0,0.5,1,0,0,0) kv=0.1100 pf=0.92 kW=0.460671 Daily=SP-Tipo1
New Load.BT_2817117_1 Bus1=2817117-11111126.1.4 Phases=1 Model=8 zipv=(0.5,0,0.5,1,0,0,0) kv=0.1100 pf=0.92 kW=0.586459 Daily=COM-Tipo9
New Load.BT_2817117_2 Bus1=2817117-11111126.2.4 Phases=1 Model=8 zipv=(0.5,0,0.5,1,0,0,0) kv=0.1100 pf=0.92 kW=0.586459 Daily=COM-Tipo9
New Load.BT_2817313_1 Bus1=2817313-11099924v.1.4 Phases=1 Model=8 zipv=(0.5,0,0.5,1,0,0,0) kv=0.1100 pf=0.92 kW=0.059856 Daily=RUR-Tipo5
New Load.BT_2817313_2 Bus1=2817313-11099924v.2.4 Phases=1 Model=8 zipv=(0.5,0,0.5,1,0,0,0) kv=0.1100 pf=0.92 kW=0.059856 Daily=RUR-Tipo5
New Load.BT_2816105_1 Bus1=2816105-11100900v.1.4 Phases=1 Model=8 zipv=(0.5,0,0.5,1,0,0,0) kv=0.1100 pf=0.92 kW=0.102541 Daily=RUR-Tipo9
New Load.BT_2816105_2 Bus1=2816105-11100900v.2.4 Phases=1 Model=8 zipv=(0.5,0,0.5,1,0,0,0) kv=0.1100 pf=0.92 kW=0.102541 Daily=RUR-Tipo9
New Load.BT_2820147_1 Bus1=2820147-11100901v.1.4 Phases=1 Model=8 zipv=(0.5,0,0.5,1,0,0,0) kv=0.1100 pf=0.92 kW=0.114541 Daily=RES-Tipo9
New Load.BT_2820147_2 Bus1=2820147-11100901v.2.4 Phases=1 Model=8 zipv=(0.5,0,0.5,1,0,0,0) kv=0.1100 pf=0.92 kW=0.114541 Daily=RES-Tipo9
New Load.BT_2818150_1 Bus1=2818150-11114190v.1.4 Phases=1 Model=8 zipv=(0.5,0,0.5,1,0,0,0) kv=0.1100 pf=0.92 kW=0.024986 Daily=RUR-Tipo2
New Load.BT_2818150_2 Bus1=2818150-11114190v.2.4 Phases=1 Model=8 zipv=(0.5,0,0.5,1,0,0,0) kv=0.1100 pf=0.92 kW=0.024986 Daily=RUR-Tipo2
New Load.BT_2817661_1 Bus1=2817661-11114284v.1.4 Phases=1 Model=8 zipv=(0.5,0,0.5,1,0,0,0) kv=0.1100 pf=0.92 kW=1.290226 Daily=RUR-Tipo6
New Load.BT_2817661_2 Bus1=2817661-11114284v.2.4 Phases=1 Model=8 zipv=(0.5,0,0.5,1,0,0,0) kv=0.1100 pf=0.92 kW=1.290226 Daily=RUR-Tipo6
New Load.BT_2816304_1 Bus1=2816304-11114287.1.4 Phases=1 Model=8 zipv=(0.5,0,0.5,1,0,0,0) kv=0.1270 pf=0.92 kW=0.787228 Daily=RES-Tipo5
New Load.BT_2816304_2 Bus1=2816304-11114287.2.4 Phases=1 Model=8 zipv=(0.5,0,0.5,1,0,0,0) kv=0.1270 pf=0.92 kW=0.787228 Daily=RES-Tipo5
New Load.BT_2816304_3 Bus1=2816304-11114287.3.4 Phases=1 Model=8 zipv=(0.5,0,0.5,1,0,0,0) kv=0.1270 pf=0.92 kW=0.787228 Daily=RES-Tipo5
New Load.BT_2820233_1 Bus1=2820233-11354034.1.4 Phases=1 Model=8 zipv=(0.5,0,0.5,1,0,0,0) kv=0.1270 pf=0.92 kW=5.448653 Daily=RES-Tipo1
New Load.BT_2820233_2 Bus1=2820233-11354034.2.4 Phases=1 Model=8 zipv=(0.5,0,0.5,1,0,0,0) kv=0.1270 pf=0.92 kW=5.448653 Daily=RES-Tipo1
New Load.BT_2820233_3 Bus1=2820233-11354034.3.4 Phases=1 Model=8 zipv=(0.5,0,0.5,1,0,0,0) kv=0.1270 pf=0.92 kW=5.448653 Daily=RES-Tipo1
New Load.BT_2817189_1 Bus1=2817189-11114241v.1.4 Phases=1 Model=8 zipv=(0.5,0,0.5,1,0,0,0) kv=0.1100 pf=0.92 kW=0.113479 Daily=RUR-Tipo2
New Load.BT_2817189_2 Bus1=2817189-11114241v.2.4 Phases=1 Model=8 zipv=(0.5,0,0.5,1,0,0,0) kv=0.1100 pf=0.92 kW=0.113479 Daily=RUR-Tipo2
New Load.BT_2819209_1 Bus1=2819209-11114242v.1.4 Phases=1 Model=8 zipv=(0.5,0,0.5,1,0,0,0) kv=0.1100 pf=0.92 kW=0.010603 Daily=RES-Tipo2
New Load.BT_2819209_2 Bus1=2819209-11114242v.2.4 Phases=1 Model=8 zipv=(0.5,0,0.5,1,0,0,0) kv=0.1100 pf=0.92 kW=0.010603 Daily=RES-Tipo2
New Load.BT_2819124_1 Bus1=2819124-11111172v.1.4 Phases=1 Model=8 zipv=(0.5,0,0.5,1,0,0,0) kv=0.1100 pf=0.92 kW=0.013253 Daily=RUR-Tipo9
New Load.BT_2819124_2 Bus1=2819124-11111172v.2.4 Phases=1 Model=8 zipv=(0.5,0,0.5,1,0,0,0) kv=0.1100 pf=0.92 kW=0.013253 Daily=RUR-Tipo9
New Load.BT_2818945_1 Bus1=2818945-11111173v.1.4 Phases=1 Model=8 zipv=(0.5,0,0.5,1,0,0,0) kv=0.1100 pf=0.92 kW=0.087404 Daily=RES-Tipo9
New Load.BT_2818945_2 Bus1=2818945-11111173v.2.4 Phases=1 Model=8 zipv=(0.5,0,0.5,1,0,0,0) kv=0.1100 pf=0.92 kW=0.087404 Daily=RES-Tipo9
New Load.BT_2819738_1 Bus1=2819738-11111179v.1.4 Phases=1 Model=8 zipv=(0.5,0,0.5,1,0,0,0) kv=0.1100 pf=0.92 kW=0.029164 Daily=RES-Tipo9
New Load.BT_2819738_2 Bus1=2819738-11111179v.2.4 Phases=1 Model=8 zipv=(0.5,0,0.5,1,0,0,0) kv=0.1100 pf=0.92 kW=0.029164 Daily=RES-Tipo9
New Load.BT_2817308_1 Bus1=2817308-11111188v.1.4 Phases=1 Model=8 zipv=(0.5,0,0.5,1,0,0,0) kv=0.1100 pf=0.92 kW=0.020548 Daily=RES-Tipo1
New Load.BT_2817308_2 Bus1=2817308-11111188v.2.4 Phases=1 Model=8 zipv=(0.5,0,0.5,1,0,0,0) kv=0.1100 pf=0.92 kW=0.020548 Daily=RES-Tipo1
New Load.BT_2818200_1 Bus1=2818200-11111192v.1.4 Phases=1 Model=8 zipv=(0.5,0,0.5,1,0,0,0) kv=0.1100 pf=0.92 kW=0.068075 Daily=RUR-Tipo2
New Load.BT_2818200_2 Bus1=2818200-11111192v.2.4 Phases=1 Model=8 zipv=(0.5,0,0.5,1,0,0,0) kv=0.1100 pf=0.92 kW=0.068075 Daily=RUR-Tipo2
New Load.BT_2817687_1 Bus1=2817687-11111209v.1.4 Phases=1 Model=8 zipv=(0.5,0,0.5,1,0,0,0) kv=0.1100 pf=0.92 kW=0.082610 Daily=RUR-Tipo5
New Load.BT_2817687_2 Bus1=2817687-11111209v.2.4 Phases=1 Model=8 zipv=(0.5,0,0.5,1,0,0,0) kv=0.1100 pf=0.92 kW=0.082610 Daily=RUR-Tipo5
New Load.BT_2816407_1 Bus1=2816407-11111216v.1.4 Phases=1 Model=8 zipv=(0.5,0,0.5,1,0,0,0) kv=0.1100 pf=0.92 kW=0.017233 Daily=RES-Tipo5
New Load.BT_2816407_2 Bus1=2816407-11111216v.2.4 Phases=1 Model=8 zipv=(0.5,0,0.5,1,0,0,0) kv=0.1100 pf=0.92 kW=0.017233 Daily=RES-Tipo5
New Load.BT_2818116_1 Bus1=2818116-11111678v.1.4 Phases=1 Model=8 zipv=(0.5,0,0.5,1,0,0,0) kv=0.1100 pf=0.92 kW=0.101212 Daily=RUR-Tipo2
New Load.BT_2818116_2 Bus1=2818116-11111678v.2.4 Phases=1 Model=8 zipv=(0.5,0,0.5,1,0,0,0) kv=0.1100 pf=0.92 kW=0.101212 Daily=RUR-Tipo2
New Load.BT_2816266_1 Bus1=2816266-11111229v.1.4 Phases=1 Model=8 zipv=(0.5,0,0.5,1,0,0,0) kv=0.1100 pf=0.92 kW=0.182795 Daily=RES-Tipo3
New Load.BT_2816266_2 Bus1=2816266-11111229v.2.4 Phases=1 Model=8 zipv=(0.5,0,0.5,1,0,0,0) kv=0.1100 pf=0.92 kW=0.182795 Daily=RES-Tipo3
New Load.BT_2820201_1 Bus1=2820201-11111230v.1.4 Phases=1 Model=8 zipv=(0.5,0,0.5,1,0,0,0) kv=0.1100 pf=0.92 kW=0.073130 Daily=RUR-Tipo3
New Load.BT_2820201_2 Bus1=2820201-11111230v.2.4 Phases=1 Model=8 zipv=(0.5,0,0.5,1,0,0,0) kv=0.1100 pf=0.92 kW=0.073130 Daily=RUR-Tipo3
New Load.BT_2820212_1 Bus1=2820212-11111236v.1.4 Phases=1 Model=8 zipv=(0.5,0,0.5,1,0,0,0) kv=0.1100 pf=0.92 kW=0.241712 Daily=RES-Tipo3
New Load.BT_2820212_2 Bus1=2820212-11111236v.2.4 Phases=1 Model=8 zipv=(0.5,0,0.5,1,0,0,0) kv=0.1100 pf=0.92 kW=0.241712 Daily=RES-Tipo3
New Load.BT_2817267_1 Bus1=2817267-11101766.1.4 Phases=1 Model=8 zipv=(0.5,0,0.5,1,0,0,0) kv=0.1270 pf=0.92 kW=7.259909 Daily=RES-Tipo2
New Load.BT_2817267_2 Bus1=2817267-11101766.2.4 Phases=1 Model=8 zipv=(0.5,0,0.5,1,0,0,0) kv=0.1270 pf=0.92 kW=7.259909 Daily=RES-Tipo2
New Load.BT_2817267_3 Bus1=2817267-11101766.3.4 Phases=1 Model=8 zipv=(0.5,0,0.5,1,0,0,0) kv=0.1270 pf=0.92 kW=7.259909 Daily=RES-Tipo2
New Load.BT_2820092_1 Bus1=2820092-11122661.1.4 Phases=1 Model=8 zipv=(0.5,0,0.5,1,0,0,0) kv=0.1100 pf=0.92 kW=0.043945 Daily=RUR-Tipo9
New Load.BT_2820092_2 Bus1=2820092-11122661.2.4 Phases=1 Model=8 zipv=(0.5,0,0.5,1,0,0,0) kv=0.1100 pf=0.92 kW=0.043945 Daily=RUR-Tipo9
New Load.BT_2817268_1 Bus1=2817268-11114185.1.4 Phases=1 Model=8 zipv=(0.5,0,0.5,1,0,0,0) kv=0.1270 pf=0.92 kW=2.485119 Daily=RES-Tipo2
New Load.BT_2817268_2 Bus1=2817268-11114185.2.4 Phases=1 Model=8 zipv=(0.5,0,0.5,1,0,0,0) kv=0.1270 pf=0.92 kW=2.485119 Daily=RES-Tipo2
...

! --- cargas de media tensao (UCMT_tab) ---
New Load.MT_12786-8077723_0 Bus1=12786-8077723.1.2.3 Phases=3 Conn=wye Model=8 zipv=(0.5,0,0.5,1,0,0,0) kv=13.8000 pf=0.92 kW=506.7878 Daily=MT-Tipo1
New Load.MT_12779-8042514_1 Bus1=12779-8042514.1.2.3 Phases=3 Conn=wye Model=8 zipv=(0.5,0,0.5,1,0,0,0) kv=13.8000 pf=0.92 kW=12.0244 Daily=MT-Tipo1
New Load.MT_18422-8076301_2 Bus1=18422-8076301.1.2.3 Phases=3 Conn=wye Model=8 zipv=(0.5,0,0.5,1,0,0,0) kv=13.8000 pf=0.92 kW=85.0141 Daily=MT-Tipo9
New Load.MT_12779-12003304_3 Bus1=12779-12003304.1.2.3 Phases=3 Conn=wye Model=8 zipv=(0.5,0,0.5,1,0,0,0) kv=13.8000 pf=0.92 kW=93.6034 Daily=MT-Tipo3
New Load.MT_12786-8075942_4 Bus1=12786-8075942.1.2.3 Phases=3 Conn=wye Model=8 zipv=(0.5,0,0.5,1,0,0,0) kv=13.8000 pf=0.92 kW=19.2119 Daily=MT-Tipo4
New Load.MT_25203-12399800_5 Bus1=25203-12399800.1.2.3 Phases=3 Conn=wye Model=8 zipv=(0.5,0,0.5,1,0,0,0) kv=34.5000 pf=0.92 kW=94.2059 Daily=MT-Tipo3
New Load.MT_16307-11088540_6 Bus1=16307-11088540.1.2.3 Phases=3 Conn=wye Model=8 zipv=(0.5,0,0.5,1,0,0,0) kv=13.8000 pf=0.92 kW=77.5701 Daily=MT-Tipo1
New Load.MT_18422-8076291_7 Bus1=18422-8076291.1.2.3 Phases=3 Conn=wye Model=8 zipv=(0.5,0,0.5,1,0,0,0) kv=13.8000 pf=0.92 kW=76.8482 Daily=MT-Tipo1
New Load.MT_21682-12494477_8 Bus1=21682-12494477.1.2.3 Phases=3 Conn=wye Model=8 zipv=(0.5,0,0.5,1,0,0,0) kv=13.8000 pf=0.92 kW=52.8683 Daily=MT-Tipo1
New Load.MT_21682-12926790_9 Bus1=21682-12926790.1.2.3 Phases=3 Conn=wye Model=8 zipv=(0.5,0,0.5,1,0,0,0) kv=13.8000 pf=0.92 kW=1.2947 Daily=MT-Tipo2
New Load.MT_12779-8042226_10 Bus1=12779-8042226.1.2.3 Phases=3 Conn=wye Model=8 zipv=(0.5,0,0.5,1,0,0,0) kv=13.8000 pf=0.92 kW=1.7204 Daily=MT-Tipo1
New Load.MT_18422-8075802_11 Bus1=18422-8075802.1.2.3 Phases=3 Conn=wye Model=8 zipv=(0.5,0,0.5,1,0,0,0) kv=13.8000 pf=0.92 kW=12.3243 Daily=MT-Tipo1
New Load.MT_12779-8042229_12 Bus1=12779-8042229.1.2.3 Phases=3 Conn=wye Model=8 zipv=(0.5,0,0.5,1,0,0,0) kv=13.8000 pf=0.92 kW=0.6853 Daily=MT-Tipo2
New Load.MT_18422-12401002_13 Bus1=18422-12401002.1.2.3 Phases=3 Conn=wye Model=8 zipv=(0.5,0,0.5,1,0,0,0) kv=13.8000 pf=0.92 kW=0.8519 Daily=MT-Tipo3
New Load.MT_21682-11362601_14 Bus1=21682-11362601.1.2.3 Phases=3 Conn=wye Model=8 zipv=(0.5,0,0.5,1,0,0,0) kv=13.8000 pf=0.92 kW=2.1435 Daily=MT-Tipo8
New Load.MT_12779-8041862_15 Bus1=12779-8041862.1.2.3 Phases=3 Conn=wye Model=8 zipv=(0.5,0,0.5,1,0,0,0) kv=13.8000 pf=0.92 kW=8.8832 Daily=MT-Tipo1
New Load.MT_18422-8078818_16 Bus1=18422-8078818.1.2.3 Phases=3 Conn=wye Model=8 zipv=(0.5,0,0.5,1,0,0,0) kv=13.8000 pf=0.92 kW=4.3914 Daily=MT-Tipo1
New Load.MT_18422-8078808_17 Bus1=18422-8078808.1.2.3 Phases=3 Conn=wye Model=8 zipv=(0.5,0,0.5,1,0,0,0) kv=13.8000 pf=0.92 kW=10.3027 Daily=MT-Tipo1
New Load.MT_12786-8075782_18 Bus1=12786-8075782.1.2.3 Phases=3 Conn=wye Model=8 zipv=(0.5,0,0.5,1,0,0,0) kv=13.8000 pf=0.92 kW=2.3572 Daily=MT-Tipo3
New Load.MT_12786-8078369_19 Bus1=12786-8078369.1.2.3 Phases=3 Conn=wye Model=8 zipv=(0.5,0,0.5,1,0,0,0) kv=13.8000 pf=0.92 kW=2.6615 Daily=MT-Tipo1
New Load.MT_21682-11088318_20 Bus1=21682-11088318.1.2.3 Phases=3 Conn=wye Model=8 zipv=(0.5,0,0.5,1,0,0,0) kv=13.8000 pf=0.92 kW=8.3969 Daily=MT-Tipo4
New Load.MT_12786-8075805_21 Bus1=12786-8075805.1.2.3 Phases=3 Conn=wye Model=8 zipv=(0.5,0,0.5,1,0,0,0) kv=13.8000 pf=0.92 kW=4.3124 Daily=MT-Tipo3
New Load.MT_21682-12851638_22 Bus1=21682-12851638.1.2.3 Phases=3 Conn=wye Model=8 zipv=(0.5,0,0.5,1,0,0,0) kv=13.8000 pf=0.92 kW=6.3174 Daily=MT-Tipo1
New Load.MT_12786-11578937_23 Bus1=12786-11578937.1.2.3 Phases=3 Conn=wye Model=8 zipv=(0.5,0,0.5,1,0,0,0) kv=13.8000 pf=0.92 kW=2.8792 Daily=MT-Tipo2
New Load.MT_12786-8075805_24 Bus1=12786-8075805.1.2.3 Phases=3 Conn=wye Model=8 zipv=(0.5,0,0.5,1,0,0,0) kv=13.8000 pf=0.92 kW=17.6984 Daily=MT-Tipo1
New Load.MT_12786-8076275_25 Bus1=12786-8076275.1.2.3 Phases=3 Conn=wye Model=8 zipv=(0.5,0,0.5,1,0,0,0) kv=13.8000 pf=0.92 kW=36.2219 Daily=MT-Tipo1
New Load.MT_18422-8074389_26 Bus1=18422-8074389.1.2.3 Phases=3 Conn=wye Model=8 zipv=(0.5,0,0.5,1,0,0,0) kv=13.8000 pf=0.92 kW=42.3531 Daily=MT-Tipo1
New Load.MT_16307-11089853_27 Bus1=16307-11089853.1.2.3 Phases=3 Conn=wye Model=8 zipv=(0.5,0,0.5,1,0,0,0) kv=13.8000 pf=0.92 kW=8.1087 Daily=MT-Tipo1
New Load.MT_18422-12576636_28 Bus1=18422-12576636.1.2.3 Phases=3 Conn=wye Model=8 zipv=(0.5,0,0.5,1,0,0,0) kv=13.8000 pf=0.92 kW=13.9242 Daily=MT-Tipo9
New Load.MT_12786-8078769_29 Bus1=12786-8078769.1.2.3 Phases=3 Conn=wye Model=8 zipv=(0.5,0,0.5,1,0,0,0) kv=13.8000 pf=0.92 kW=5.8727 Daily=MT-Tipo1
New Load.MT_16307-11087394_30 Bus1=16307-11087394.1.2.3 Phases=3 Conn=wye Model=8 zipv=(0.5,0,0.5,1,0,0,0) kv=13.8000 pf=0.92 kW=34.0440 Daily=MT-Tipo1
New Load.MT_12786-8078366_31 Bus1=12786-8078366.1.2.3 Phases=3 Conn=wye Model=8 zipv=(0.5,0,0.5,1,0,0,0) kv=13.8000 pf=0.92 kW=7.5336 Daily=MT-Tipo1
New Load.MT_16307-11089264_32 Bus1=16307-11089264.1.2.3 Phases=3 Conn=wye Model=8 zipv=(0.5,0,0.5,1,0,0,0) kv=13.8000 pf=0.92 kW=11.8891 Daily=MT-Tipo4
New Load.MT_21682-11825621_33 Bus1=21682-11825621.1.2.3 Phases=3 Conn=wye Model=8 zipv=(0.5,0,0.5,1,0,0,0) kv=13.8000 pf=0.92 kW=14.8152 Daily=MT-Tipo5
New Load.MT_16307-11637689_34 Bus1=16307-11637689.1.2.3 Phases=3 Conn=wye Model=8 zipv=(0.5,0,0.5,1,0,0,0) kv=13.8000 pf=0.92 kW=5.3684 Daily=MT-Tipo7
New Load.MT_12786-11701269_35 Bus1=12786-11701269.1.2.3 Phases=3 Conn=wye Model=8 zipv=(0.5,0,0.5,1,0,0,0) kv=13.8000 pf=0.92 kW=3.5750 Daily=MT-Tipo3
New Load.MT_16307-11436912_36 Bus1=16307-11436912.1.2.3 Phases=3 Conn=wye Model=8 zipv=(0.5,0,0.5,1,0,0,0) kv=13.8000 pf=0.92 kW=4.4599 Daily=MT-Tipo7
New Load.MT_16307-11087869_37 Bus1=16307-11087869.1.2.3 Phases=3 Conn=wye Model=8 zipv=(0.5,0,0.5,1,0,0,0) kv=13.8000 pf=0.92 kW=3.2509 Daily=MT-Tipo3
New Load.MT_12786-8075819_38 Bus1=12786-8075819.1.2.3 Phases=3 Conn=wye Model=8 zipv=(0.5,0,0.5,1,0,0,0) kv=13.8000 pf=0.92 kW=9.2993 Daily=MT-Tipo4
New Load.MT_12779-12485401_39 Bus1=12779-12485401.1.2.3 Phases=3 Conn=wye Model=8 zipv=(0.5,0,0.5,1,0,0,0) kv=13.8000 pf=0.92 kW=10.1020 Daily=MT-Tipo1
New Load.MT_16307-11090684_40 Bus1=16307-11090684.1.2.3 Phases=3 Conn=wye Model=8 zipv=(0.5,0,0.5,1,0,0,0) kv=13.8000 pf=0.92 kW=16.4057 Daily=MT-Tipo1
New Load.MT_12786-8076280_41 Bus1=12786-8076280.1.2.3 Phases=3 Conn=wye Model=8 zipv=(0.5,0,0.5,1,0,0,0) kv=13.8000 pf=0.92 kW=3.1451 Daily=MT-Tipo1
New Load.MT_16307-11090115_42 Bus1=16307-11090115.1.2.3 Phases=3 Conn=wye Model=8 zipv=(0.5,0,0.5,1,0,0,0) kv=13.8000 pf=0.92 kW=1.8908 Daily=MT-Tipo1
New Load.MT_12786-8077849_43 Bus1=12786-8077849.1.2.3 Phases=3 Conn=wye Model=8 zipv=(0.5,0,0.5,1,0,0,0) kv=13.8000 pf=0.92 kW=14.2496 Daily=MT-Tipo1
New Load.MT_21682-12522511_44 Bus1=21682-12522511.1.2.3 Phases=3 Conn=wye Model=8 zipv=(0.5,0,0.5,1,0,0,0) kv=13.8000 pf=0.92 kW=2.1040 Daily=MT-Tipo6
New Load.MT_12779-8042667_45 Bus1=12779-8042667.1.2.3 Phases=3 Conn=wye Model=8 zipv=(0.5,0,0.5,1,0,0,0) kv=13.8000 pf=0.92 kW=2.9470 Daily=MT-Tipo1
New Load.MT_12786-12505129_46 Bus1=12786-12505129.1.2.3 Phases=3 Conn=wye Model=8 zipv=(0.5,0,0.5,1,0,0,0) kv=13.8000 pf=0.92 kW=4.2299 Daily=MT-Tipo4
New Load.MT_12786-8075786_47 Bus1=12786-8075786.1.2.3 Phases=3 Conn=wye Model=8 zipv=(0.5,0,0.5,1,0,0,0) kv=13.8000 pf=0.92 kW=1.5331 Daily=MT-Tipo4
New Load.MT_12786-11406282_48 Bus1=12786-11406282.1.2.3 Phases=3 Conn=wye Model=8 zipv=(0.5,0,0.5,1,0,0,0) kv=13.8000 pf=0.92 kW=2.5339 Daily=MT-Tipo8
New Load.MT_21682-11087389_49 Bus1=21682-11087389.1.2.3 Phases=3 Conn=wye Model=8 zipv=(0.5,0,0.5,1,0,0,0) kv=13.8000 pf=0.92 kW=3.0712 Daily=MT-Tipo4
New Load.MT_21682-11087860_50 Bus1=21682-11087860.1.2.3 Phases=3 Conn=wye Model=8 zipv=(0.5,0,0.5,1,0,0,0) kv=13.8000 pf=0.92 kW=8.7688 Daily=MT-Tipo4
New Load.MT_21682-11087891_51 Bus1=21682-11087891.1.2.3 Phases=3 Conn=wye Model=8 zipv=(0.5,0,0.5,1,0,0,0) kv=13.8000 pf=0.92 kW=6.2423 Daily=MT-Tipo9
New Load.MT_12786-8076255_52 Bus1=12786-8076255.1.2.3 Phases=3 Conn=wye Model=8 zipv=(0.5,0,0.5,1,0,0,0) kv=13.8000 pf=0.92 kW=17.1672 Daily=MT-Tipo1
New Load.MT_12786-8074398_53 Bus1=12786-8074398.1.2.3 Phases=3 Conn=wye Model=8 zipv=(0.5,0,0.5,1,0,0,0) kv=13.8000 pf=0.92 kW=3.6179 Daily=MT-Tipo4
New Load.MT_12786-8078815_54 Bus1=12786-8078815.1.2.3 Phases=3 Conn=wye Model=8 zipv=(0.5,0,0.5,1,0,0,0) kv=13.8000 pf=0.92 kW=5.5293 Daily=MT-Tipo8
New Load.MT_21682-11087880_55 Bus1=21682-11087880.1.2.3 Phases=3 Conn=wye Model=8 zipv=(0.5,0,0.5,1,0,0,0) kv=13.8000 pf=0.92 kW=9.3051 Daily=MT-Tipo4
New Load.MT_12786-8074968_56 Bus1=12786-8074968.1.2.3 Phases=3 Conn=wye Model=8 zipv=(0.5,0,0.5,1,0,0,0) kv=13.8000 pf=0.92 kW=1.8133 Daily=MT-Tipo8
New Load.MT_21682-11089967_57 Bus1=21682-11089967.1.2.3 Phases=3 Conn=wye Model=8 zipv=(0.5,0,0.5,1,0,0,0) kv=13.8000 pf=0.92 kW=1.8708 Daily=MT-Tipo2
New Load.MT_16307-12618319_58 Bus1=16307-12618319.1.2.3 Phases=3 Conn=wye Model=8 zipv=(0.5,0,0.5,1,0,0,0) kv=13.8000 pf=0.92 kW=0.4970 Daily=MT-Tipo8
New Load.MT_12786-8078356_59 Bus1=12786-8078356.1.2.3 Phases=3 Conn=wye Model=8 zipv=(0.5,0,0.5,1,0,0,0) kv=13.8000 pf=0.92 kW=2.0457 Daily=MT-Tipo2
New Load.MT_16342-11328774_60 Bus1=16342-11328774.1.2.3 Phases=3 Conn=wye Model=8 zipv=(0.5,0,0.5,1,0,0,0) kv=34.5000 pf=0.92 kW=0.4454 Daily=MT-Tipo1
New Load.MT_16307-11089103_61 Bus1=16307-11089103.1.2.3 Phases=3 Conn=wye Model=8 zipv=(0.5,0,0.5,1,0,0,0) kv=13.8000 pf=0.92 kW=5.2391 Daily=MT-Tipo3
New Load.MT_16342-11898508_62 Bus1=16342-11898508.1.2.3 Phases=3 Conn=wye Model=8 zipv=(0.5,0,0.5,1,0,0,0) kv=34.5000 pf=0.92 kW=0.0864 Daily=MT-Tipo3
New Load.MT_21682-11087700_86 Bus1=21682-11087700.1.2.3 Phases=3 Conn=wye Model=8 zipv=(0.5,0,0.5,1,0,0,0) kv=13.8000 pf=0.92 kW=4.5580 Daily=MT-Tipo7
New Load.MT_18422-12641738_87 Bus1=18422-12641738.1.2.3 Phases=3 Conn=wye Model=8 zipv=(0.5,0,0.5,1,0,0,0) kv=13.8000 pf=0.92 kW=719.7308 Daily=MT-Tipo2
New Load.MT_21682-12849397_88 Bus1=21682-12849397.1.2.3 Phases=3 Conn=wye Model=8 zipv=(0.5,0,0.5,1,0,0,0) kv=13.8000 pf=0.92 kW=86.6448 Daily=MT-Tipo1
New Load.MT_12786-8078378_89 Bus1=12786-8078378.1.2.3 Phases=3 Conn=wye Model=8 zipv=(0.5,0,0.5,1,0,0,0) kv=13.8000 pf=0.92 kW=68.3510 Daily=MT-Tipo4
New Load.MT_16307-11089610_90 Bus1=16307-11089610.1.2.3 Phases=3 Conn=wye Model=8 zipv=(0.5,0,0.5,1,0,0,0) kv=13.8000 pf=0.92 kW=46.0272 Daily=MT-Tipo1
New Load.MT_16307-11637699_91 Bus1=16307-11637699.1.2.3 Phases=3 Conn=wye Model=8 zipv=(0.5,0,0.5,1,0,0,0) kv=13.8000 pf=0.92 kW=17.6597 Daily=MT-Tipo1
New Load.MT_12786-8076758_92 Bus1=12786-8076758.1.2.3 Phases=3 Conn=wye Model=8 zipv=(0.5,0,0.5,1,0,0,0) kv=13.8000 pf=0.92 kW=4.8441 Daily=MT-Tipo4
New Load.MT_16307-11088320_93 Bus1=16307-11088320.1.2.3 Phases=3 Conn=wye Model=8 zipv=(0.5,0,0.5,1,0,0,0) kv=13.8000 pf=0.92 kW=39.1076 Daily=MT-Tipo1
New Load.MT_21682-12512553_94 Bus1=21682-12512553.1.2.3 Phases=3 Conn=wye Model=8 zipv=(0.5,0,0.5,1,0,0,0) kv=13.8000 pf=0.92 kW=200.2854 Daily=MT-Tipo7
New Load.MT_16307-11090098_95 Bus1=16307-11090098.1.2.3 Phases=3 Conn=wye Model=8 zipv=(0.5,0,0.5,1,0,0,0) kv=13.8000 pf=0.92 kW=23.3904 Daily=MT-Tipo1
New Load.MT_12786-8076763_96 Bus1=12786-8076763.1.2.3 Phases=3 Conn=wye Model=8 zipv=(0.5,0,0.5,1,0,0,0) kv=13.8000 pf=0.92 kW=4.2839 Daily=MT-Tipo4
New Load.MT_12779-12291861_97 Bus1=12779-12291861.1.2.3 Phases=3 Conn=wye Model=8 zipv=(0.5,0,0.5,1,0,0,0) kv=13.8000 pf=0.92 kW=9.0233 Daily=MT-Tipo1
New Load.MT_12786-8077385_98 Bus1=12786-8077385.1.2.3 Phases=3 Conn=wye Model=8 zipv=(0.5,0,0.5,1,0,0,0) kv=13.8000 pf=0.92 kW=6.1223 Daily=MT-Tipo1
New Load.MT_16307-11087405_99 Bus1=16307-11087405.1.2.3 Phases=3 Conn=wye Model=8 zipv=(0.5,0,0.5,1,0,0,0) kv=13.8000 pf=0.92 kW=139.4688 Daily=MT-Tipo1
New Load.MT_25203-12569715_100 Bus1=25203-12569715.1.2.3 Phases=3 Conn=wye Model=8 zipv=(0.5,0,0.5,1,0,0,0) kv=34.5000 pf=0.92 kW=40.2805 Daily=MT-Tipo2
New Load.MT_12786-8078199_101 Bus1=12786-8078199.1.2.3 Phases=3 Conn=wye Model=8 zipv=(0.5,0,0.5,1,0,0,0) kv=13.8000 pf=0.92 kW=16.1717 Daily=MT-Tipo1
New Load.MT_12779-8042512_102 Bus1=12779-8042512.1.2.3 Phases=3 Conn=wye Model=8 zipv=(0.5,0,0.5,1,0,0,0) kv=13.8000 pf=0.92 kW=11.8573 Daily=MT-Tipo1
New Load.MT_12786-8076288_103 Bus1=12786-8076288.1.2.3 Phases=3 Conn=wye Model=8 zipv=(0.5,0,0.5,1,0,0,0) kv=13.8000 pf=0.92 kW=8.9044 Daily=MT-Tipo4
New Load.MT_12786-12532285_104 Bus1=12786-12532285.1.2.3 Phases=3 Conn=wye Model=8 zipv=(0.5,0,0.5,1,0,0,0) kv=13.8000 pf=0.92 kW=9.7251 Daily=MT-Tipo8
New Load.MT_16307-11088317_105 Bus1=16307-11088317.1.2.3 Phases=3 Conn=wye Model=8 zipv=(0.5,0,0.5,1,0,0,0) kv=13.8000 pf=0.92 kW=0.0443 Daily=MT-Tipo5
New Load.MT_12786-8077385_106 Bus1=12786-8077385.1.2.3 Phases=3 Conn=wye Model=8 zipv=(0.5,0,0.5,1,0,0,0) kv=13.8000 pf=0.92 kW=0.2019 Daily=MT-Tipo1
New Load.MT_16307-11088326_107 Bus1=16307-11088326.1.2.3 Phases=3 Conn=wye Model=8 zipv=(0.5,0,0.5,1,0,0,0) kv=13.8000 pf=0.92 kW=7.9750 Daily=MT-Tipo1
